Version 4
SHEET 1 1088 680
WIRE 464 -48 384 -48
WIRE 688 -48 544 -48
WIRE 480 96 480 64
WIRE 288 112 112 112
WIRE 384 112 384 -48
WIRE 384 112 368 112
WIRE 448 112 384 112
WIRE 688 128 688 -48
WIRE 688 128 512 128
WIRE 784 128 688 128
WIRE 976 128 864 128
WIRE 448 144 208 144
WIRE -224 160 -224 80
WIRE 208 192 208 144
WIRE 976 208 976 128
WIRE 480 336 480 160
WIRE 976 336 976 272
WIRE -224 352 -224 240
WIRE 112 352 112 112
WIRE 208 352 208 272
FLAG 480 336 0
FLAG 208 352 0
FLAG -224 80 VCC
FLAG -224 352 0
FLAG 480 64 VCC
FLAG 976 336 0
FLAG 112 352 0
SYMBOL voltage 208 176 R0
WINDOW 123 0 0 Left 0
WINDOW 39 0 0 Left 0
SYMATTR InstName V1
SYMATTR Value SINE(1.65 0.8 1000)
SYMBOL voltage -224 144 R0
WINDOW 123 0 0 Left 0
WINDOW 39 0 0 Left 0
SYMATTR InstName V2
SYMATTR Value 3.3
SYMBOL res 560 -64 R90
WINDOW 0 0 56 VBottom 2
WINDOW 3 32 56 VTop 2
SYMATTR InstName R1
SYMATTR Value 1k
SYMBOL res 384 96 R90
WINDOW 0 0 56 VBottom 2
WINDOW 3 32 56 VTop 2
SYMATTR InstName R2
SYMATTR Value 100k
SYMBOL OpAmps\\AD820 480 64 R0
SYMATTR InstName U2
SYMBOL res 880 112 R90
WINDOW 0 0 56 VBottom 2
WINDOW 3 32 56 VTop 2
SYMATTR InstName R3
SYMATTR Value 1k
SYMBOL cap 960 208 R0
SYMATTR InstName C1
SYMATTR Value 1µ
TEXT -256 376 Left 2 !.tran 0 1.008 1.0001 0.001
